*SPEF "ieee 1481-1999"
*DESIGN "alu"
*DATE "10:16:31 Sunday May 25, 2025"
*VENDOR "The OpenROAD Project"
*PROGRAM "OpenROAD"
*VERSION "b16bda7e82721d10566ff7e2b68f1ff0be9f9e38"
*DESIGN_FLOW "NAME_SCOPE LOCAL" "PIN_CAP NONE"
*DIVIDER /
*DELIMITER :
*BUS_DELIMITER []
*T_UNIT 1 NS
*C_UNIT 1 PF
*R_UNIT 1 OHM
*L_UNIT 1 HENRY

*NAME_MAP
*1 A[0]
*2 A[1]
*3 A[2]
*4 A[3]
*5 A[4]
*6 A[5]
*7 A[6]
*8 A[7]
*9 B[0]
*10 B[1]
*11 B[2]
*12 B[3]
*13 B[4]
*14 B[5]
*15 B[6]
*16 B[7]
*19 opcode[0]
*20 opcode[1]
*21 opcode[2]
*22 out[0]
*23 out[1]
*24 out[2]
*25 out[3]
*26 out[4]
*27 out[5]
*28 out[6]
*29 out[7]
*30 _000_
*31 _001_
*32 _002_
*33 _003_
*34 _004_
*35 _005_
*36 _006_
*37 _007_
*38 _008_
*39 _009_
*40 _010_
*41 _011_
*42 _012_
*43 _013_
*44 _014_
*45 _015_
*46 _016_
*47 _017_
*48 _018_
*49 _019_
*50 _020_
*51 _021_
*52 _022_
*53 _023_
*54 _024_
*55 _025_
*56 _026_
*57 _027_
*58 _028_
*59 _029_
*60 _030_
*61 _031_
*62 _032_
*63 _033_
*64 _034_
*65 _035_
*66 _036_
*67 _037_
*68 _038_
*69 _039_
*70 _040_
*71 _041_
*72 _042_
*73 _043_
*74 _044_
*75 _045_
*76 _046_
*77 _047_
*78 _048_
*79 _049_
*80 _050_
*81 _051_
*82 _052_
*83 _053_
*84 _054_
*85 _055_
*86 _056_
*87 _057_
*88 _058_
*89 _059_
*90 _060_
*91 _061_
*92 _062_
*93 _063_
*94 _064_
*95 _065_
*96 _066_
*97 _067_
*98 _068_
*99 _069_
*100 _070_
*101 _071_
*102 _072_
*103 _073_
*104 _074_
*105 _075_
*106 _076_
*107 _077_
*108 _078_
*109 _079_
*110 _080_
*111 _081_
*112 _082_
*113 _083_
*114 _084_
*115 _085_
*116 _086_
*117 _087_
*118 _088_
*119 _089_
*120 _090_
*121 _091_
*122 _092_
*123 _093_
*124 _094_
*125 _095_
*126 _096_
*127 _097_
*128 _098_
*129 _099_
*130 _100_
*131 _101_
*132 _102_
*133 _103_
*134 _104_
*135 _105_
*136 _106_
*137 _107_
*138 _108_
*139 _109_
*140 _110_
*141 _111_
*142 _112_
*143 _113_
*144 _114_
*145 _115_
*146 _116_
*147 _117_
*148 _118_
*149 _119_
*150 _120_
*151 _121_
*152 _122_
*153 _123_
*154 _124_
*155 _125_
*156 _126_
*157 _127_
*158 _128_
*159 _129_
*160 _130_
*161 _131_
*162 _132_
*163 _133_
*164 _134_
*165 _135_
*166 _136_
*167 _137_
*168 _138_
*169 _139_
*170 _140_
*171 _141_
*172 _142_
*173 _143_
*174 _144_
*175 _145_
*176 _146_
*177 _147_
*178 _148_
*179 _149_
*180 _150_
*181 _151_
*182 _152_
*183 _153_
*184 _154_
*185 _155_
*186 _156_
*187 _157_
*188 _158_
*189 _159_
*190 _160_
*191 net1
*192 net10
*193 net11
*194 net12
*195 net13
*196 net14
*197 net15
*198 net16
*199 net17
*200 net18
*201 net19
*202 net2
*203 net20
*204 net21
*205 net22
*206 net23
*207 net24
*208 net25
*209 net26
*210 net27
*211 net3
*212 net4
*213 net5
*214 net6
*215 net7
*216 net8
*217 net9
*218 ANTENNA_1
*219 FILLER_0_0_105
*220 FILLER_0_0_111
*221 FILLER_0_0_123
*222 FILLER_0_0_135
*223 FILLER_0_0_139
*224 FILLER_0_0_141
*225 FILLER_0_0_15
*226 FILLER_0_0_27
*227 FILLER_0_0_29
*228 FILLER_0_0_3
*229 FILLER_0_0_41
*230 FILLER_0_0_55
*231 FILLER_0_0_57
*232 FILLER_0_0_63
*233 FILLER_0_0_75
*234 FILLER_0_0_83
*235 FILLER_0_0_85
*236 FILLER_0_10_109
*237 FILLER_0_10_113
*238 FILLER_0_10_121
*239 FILLER_0_10_134
*240 FILLER_0_10_148
*241 FILLER_0_10_27
*242 FILLER_0_10_38
*243 FILLER_0_10_46
*244 FILLER_0_10_6
*245 FILLER_0_10_72
*246 FILLER_0_10_81
*247 FILLER_0_10_85
*248 FILLER_0_10_97
*249 FILLER_0_11_103
*250 FILLER_0_11_137
*251 FILLER_0_11_141
*252 FILLER_0_11_29
*253 FILLER_0_11_37
*254 FILLER_0_11_52
*255 FILLER_0_11_57
*256 FILLER_0_11_65
*257 FILLER_0_11_7
*258 FILLER_0_11_73
*259 FILLER_0_11_91
*260 FILLER_0_12_101
*261 FILLER_0_12_107
*262 FILLER_0_12_112
*263 FILLER_0_12_118
*264 FILLER_0_12_130
*265 FILLER_0_12_138
*266 FILLER_0_12_144
*267 FILLER_0_12_148
*268 FILLER_0_12_18
*269 FILLER_0_12_26
*270 FILLER_0_12_29
*271 FILLER_0_12_37
*272 FILLER_0_12_47
*273 FILLER_0_12_59
*274 FILLER_0_12_6
*275 FILLER_0_12_71
*276 FILLER_0_12_83
*277 FILLER_0_12_89
*278 FILLER_0_13_102
*279 FILLER_0_13_110
*280 FILLER_0_13_113
*281 FILLER_0_13_125
*282 FILLER_0_13_131
*283 FILLER_0_13_146
*284 FILLER_0_13_15
*285 FILLER_0_13_152
*286 FILLER_0_13_27
*287 FILLER_0_13_3
*288 FILLER_0_13_39
*289 FILLER_0_13_51
*290 FILLER_0_13_55
*291 FILLER_0_13_57
*292 FILLER_0_13_61
*293 FILLER_0_13_66
*294 FILLER_0_13_78
*295 FILLER_0_13_90
*296 FILLER_0_14_109
*297 FILLER_0_14_121
*298 FILLER_0_14_127
*299 FILLER_0_14_135
*300 FILLER_0_14_139
*301 FILLER_0_14_141
*302 FILLER_0_14_18
*303 FILLER_0_14_44
*304 FILLER_0_14_56
*305 FILLER_0_14_6
*306 FILLER_0_14_68
*307 FILLER_0_14_74
*308 FILLER_0_14_79
*309 FILLER_0_14_83
*310 FILLER_0_14_85
*311 FILLER_0_14_97
*312 FILLER_0_15_105
*313 FILLER_0_15_111
*314 FILLER_0_15_113
*315 FILLER_0_15_135
*316 FILLER_0_15_147
*317 FILLER_0_15_19
*318 FILLER_0_15_46
*319 FILLER_0_15_54
*320 FILLER_0_15_57
*321 FILLER_0_15_61
*322 FILLER_0_15_65
*323 FILLER_0_15_7
*324 FILLER_0_15_70
*325 FILLER_0_15_86
*326 FILLER_0_15_98
*327 FILLER_0_16_109
*328 FILLER_0_16_117
*329 FILLER_0_16_132
*330 FILLER_0_16_14
*331 FILLER_0_16_141
*332 FILLER_0_16_149
*333 FILLER_0_16_25
*334 FILLER_0_16_35
*335 FILLER_0_16_47
*336 FILLER_0_16_55
*337 FILLER_0_16_6
*338 FILLER_0_16_62
*339 FILLER_0_16_83
*340 FILLER_0_16_85
*341 FILLER_0_16_98
*342 FILLER_0_17_109
*343 FILLER_0_17_113
*344 FILLER_0_17_125
*345 FILLER_0_17_137
*346 FILLER_0_17_149
*347 FILLER_0_17_31
*348 FILLER_0_17_37
*349 FILLER_0_17_43
*350 FILLER_0_17_50
*351 FILLER_0_17_57
*352 FILLER_0_17_6
*353 FILLER_0_17_76
*354 FILLER_0_17_85
*355 FILLER_0_17_97
*356 FILLER_0_18_109
*357 FILLER_0_18_11
*358 FILLER_0_18_121
*359 FILLER_0_18_133
*360 FILLER_0_18_139
*361 FILLER_0_18_141
*362 FILLER_0_18_19
*363 FILLER_0_18_29
*364 FILLER_0_18_3
*365 FILLER_0_18_41
*366 FILLER_0_18_49
*367 FILLER_0_18_65
*368 FILLER_0_18_77
*369 FILLER_0_18_83
*370 FILLER_0_18_85
*371 FILLER_0_18_97
*372 FILLER_0_19_105
*373 FILLER_0_19_111
*374 FILLER_0_19_113
*375 FILLER_0_19_125
*376 FILLER_0_19_137
*377 FILLER_0_19_14
*378 FILLER_0_19_149
*379 FILLER_0_19_21
*380 FILLER_0_19_33
*381 FILLER_0_19_45
*382 FILLER_0_19_53
*383 FILLER_0_19_57
*384 FILLER_0_19_6
*385 FILLER_0_19_69
*386 FILLER_0_19_81
*387 FILLER_0_19_93
*388 FILLER_0_1_104
*389 FILLER_0_1_113
*390 FILLER_0_1_125
*391 FILLER_0_1_137
*392 FILLER_0_1_149
*393 FILLER_0_1_15
*394 FILLER_0_1_27
*395 FILLER_0_1_3
*396 FILLER_0_1_39
*397 FILLER_0_1_47
*398 FILLER_0_1_68
*399 FILLER_0_1_80
*400 FILLER_0_1_92
*401 FILLER_0_20_109
*402 FILLER_0_20_121
*403 FILLER_0_20_133
*404 FILLER_0_20_139
*405 FILLER_0_20_141
*406 FILLER_0_20_15
*407 FILLER_0_20_29
*408 FILLER_0_20_3
*409 FILLER_0_20_41
*410 FILLER_0_20_53
*411 FILLER_0_20_65
*412 FILLER_0_20_77
*413 FILLER_0_20_83
*414 FILLER_0_20_85
*415 FILLER_0_20_97
*416 FILLER_0_21_102
*417 FILLER_0_21_110
*418 FILLER_0_21_113
*419 FILLER_0_21_125
*420 FILLER_0_21_137
*421 FILLER_0_21_149
*422 FILLER_0_21_15
*423 FILLER_0_21_27
*424 FILLER_0_21_3
*425 FILLER_0_21_39
*426 FILLER_0_21_53
*427 FILLER_0_21_69
*428 FILLER_0_21_81
*429 FILLER_0_21_93
*430 FILLER_0_22_114
*431 FILLER_0_22_126
*432 FILLER_0_22_138
*433 FILLER_0_22_141
*434 FILLER_0_22_19
*435 FILLER_0_22_27
*436 FILLER_0_22_29
*437 FILLER_0_22_41
*438 FILLER_0_22_7
*439 FILLER_0_22_71
*440 FILLER_0_22_75
*441 FILLER_0_22_81
*442 FILLER_0_22_94
*443 FILLER_0_23_101
*444 FILLER_0_23_109
*445 FILLER_0_23_113
*446 FILLER_0_23_125
*447 FILLER_0_23_137
*448 FILLER_0_23_149
*449 FILLER_0_23_15
*450 FILLER_0_23_27
*451 FILLER_0_23_3
*452 FILLER_0_23_39
*453 FILLER_0_23_50
*454 FILLER_0_23_54
*455 FILLER_0_23_66
*456 FILLER_0_23_78
*457 FILLER_0_23_87
*458 FILLER_0_24_109
*459 FILLER_0_24_121
*460 FILLER_0_24_133
*461 FILLER_0_24_139
*462 FILLER_0_24_141
*463 FILLER_0_24_15
*464 FILLER_0_24_27
*465 FILLER_0_24_29
*466 FILLER_0_24_3
*467 FILLER_0_24_41
*468 FILLER_0_24_53
*469 FILLER_0_24_65
*470 FILLER_0_24_77
*471 FILLER_0_24_83
*472 FILLER_0_24_85
*473 FILLER_0_24_97
*474 FILLER_0_25_103
*475 FILLER_0_25_111
*476 FILLER_0_25_113
*477 FILLER_0_25_125
*478 FILLER_0_25_137
*479 FILLER_0_25_141
*480 FILLER_0_25_15
*481 FILLER_0_25_27
*482 FILLER_0_25_29
*483 FILLER_0_25_3
*484 FILLER_0_25_41
*485 FILLER_0_25_53
*486 FILLER_0_25_57
*487 FILLER_0_25_69
*488 FILLER_0_25_81
*489 FILLER_0_25_91
*490 FILLER_0_2_118
*491 FILLER_0_2_130
*492 FILLER_0_2_138
*493 FILLER_0_2_141
*494 FILLER_0_2_15
*495 FILLER_0_2_27
*496 FILLER_0_2_29
*497 FILLER_0_2_3
*498 FILLER_0_2_41
*499 FILLER_0_2_74
*500 FILLER_0_2_83
*501 FILLER_0_2_96
*502 FILLER_0_3_107
*503 FILLER_0_3_111
*504 FILLER_0_3_125
*505 FILLER_0_3_137
*506 FILLER_0_3_149
*507 FILLER_0_3_15
*508 FILLER_0_3_27
*509 FILLER_0_3_3
*510 FILLER_0_3_39
*511 FILLER_0_3_67
*512 FILLER_0_3_75
*513 FILLER_0_3_96
*514 FILLER_0_4_109
*515 FILLER_0_4_121
*516 FILLER_0_4_130
*517 FILLER_0_4_138
*518 FILLER_0_4_141
*519 FILLER_0_4_15
*520 FILLER_0_4_27
*521 FILLER_0_4_29
*522 FILLER_0_4_3
*523 FILLER_0_4_41
*524 FILLER_0_4_49
*525 FILLER_0_4_57
*526 FILLER_0_4_69
*527 FILLER_0_4_81
*528 FILLER_0_4_85
*529 FILLER_0_4_97
*530 FILLER_0_5_110
*531 FILLER_0_5_131
*532 FILLER_0_5_143
*533 FILLER_0_5_15
*534 FILLER_0_5_151
*535 FILLER_0_5_27
*536 FILLER_0_5_3
*537 FILLER_0_5_39
*538 FILLER_0_5_55
*539 FILLER_0_5_57
*540 FILLER_0_5_69
*541 FILLER_0_5_81
*542 FILLER_0_5_98
*543 FILLER_0_6_105
*544 FILLER_0_6_126
*545 FILLER_0_6_138
*546 FILLER_0_6_141
*547 FILLER_0_6_25
*548 FILLER_0_6_29
*549 FILLER_0_6_3
*550 FILLER_0_6_41
*551 FILLER_0_6_47
*552 FILLER_0_6_69
*553 FILLER_0_6_75
*554 FILLER_0_6_83
*555 FILLER_0_6_88
*556 FILLER_0_6_93
*557 FILLER_0_7_110
*558 FILLER_0_7_113
*559 FILLER_0_7_125
*560 FILLER_0_7_139
*561 FILLER_0_7_151
*562 FILLER_0_7_39
*563 FILLER_0_7_47
*564 FILLER_0_7_55
*565 FILLER_0_7_57
*566 FILLER_0_7_69
*567 FILLER_0_7_7
*568 FILLER_0_7_86
*569 FILLER_0_7_98
*570 FILLER_0_8_103
*571 FILLER_0_8_115
*572 FILLER_0_8_133
*573 FILLER_0_8_139
*574 FILLER_0_8_141
*575 FILLER_0_8_15
*576 FILLER_0_8_27
*577 FILLER_0_8_29
*578 FILLER_0_8_3
*579 FILLER_0_8_41
*580 FILLER_0_8_53
*581 FILLER_0_8_65
*582 FILLER_0_8_77
*583 FILLER_0_8_83
*584 FILLER_0_8_91
*585 FILLER_0_9_101
*586 FILLER_0_9_106
*587 FILLER_0_9_113
*588 FILLER_0_9_119
*589 FILLER_0_9_123
*590 FILLER_0_9_135
*591 FILLER_0_9_144
*592 FILLER_0_9_15
*593 FILLER_0_9_152
*594 FILLER_0_9_29
*595 FILLER_0_9_41
*596 FILLER_0_9_53
*597 FILLER_0_9_57
*598 FILLER_0_9_69
*599 FILLER_0_9_7
*600 FILLER_0_9_89
*601 PHY_EDGE_ROW_0_Left_26
*602 PHY_EDGE_ROW_0_Right_0
*603 PHY_EDGE_ROW_10_Left_36
*604 PHY_EDGE_ROW_10_Right_10
*605 PHY_EDGE_ROW_11_Left_37
*606 PHY_EDGE_ROW_11_Right_11
*607 PHY_EDGE_ROW_12_Left_38
*608 PHY_EDGE_ROW_12_Right_12
*609 PHY_EDGE_ROW_13_Left_39
*610 PHY_EDGE_ROW_13_Right_13
*611 PHY_EDGE_ROW_14_Left_40
*612 PHY_EDGE_ROW_14_Right_14
*613 PHY_EDGE_ROW_15_Left_41
*614 PHY_EDGE_ROW_15_Right_15
*615 PHY_EDGE_ROW_16_Left_42
*616 PHY_EDGE_ROW_16_Right_16
*617 PHY_EDGE_ROW_17_Left_43
*618 PHY_EDGE_ROW_17_Right_17
*619 PHY_EDGE_ROW_18_Left_44
*620 PHY_EDGE_ROW_18_Right_18
*621 PHY_EDGE_ROW_19_Left_45
*622 PHY_EDGE_ROW_19_Right_19
*623 PHY_EDGE_ROW_1_Left_27
*624 PHY_EDGE_ROW_1_Right_1
*625 PHY_EDGE_ROW_20_Left_46
*626 PHY_EDGE_ROW_20_Right_20
*627 PHY_EDGE_ROW_21_Left_47
*628 PHY_EDGE_ROW_21_Right_21
*629 PHY_EDGE_ROW_22_Left_48
*630 PHY_EDGE_ROW_22_Right_22
*631 PHY_EDGE_ROW_23_Left_49
*632 PHY_EDGE_ROW_23_Right_23
*633 PHY_EDGE_ROW_24_Left_50
*634 PHY_EDGE_ROW_24_Right_24
*635 PHY_EDGE_ROW_25_Left_51
*636 PHY_EDGE_ROW_25_Right_25
*637 PHY_EDGE_ROW_2_Left_28
*638 PHY_EDGE_ROW_2_Right_2
*639 PHY_EDGE_ROW_3_Left_29
*640 PHY_EDGE_ROW_3_Right_3
*641 PHY_EDGE_ROW_4_Left_30
*642 PHY_EDGE_ROW_4_Right_4
*643 PHY_EDGE_ROW_5_Left_31
*644 PHY_EDGE_ROW_5_Right_5
*645 PHY_EDGE_ROW_6_Left_32
*646 PHY_EDGE_ROW_6_Right_6
*647 PHY_EDGE_ROW_7_Left_33
*648 PHY_EDGE_ROW_7_Right_7
*649 PHY_EDGE_ROW_8_Left_34
*650 PHY_EDGE_ROW_8_Right_8
*651 PHY_EDGE_ROW_9_Left_35
*652 PHY_EDGE_ROW_9_Right_9
*653 TAP_TAPCELL_ROW_0_52
*654 TAP_TAPCELL_ROW_0_53
*655 TAP_TAPCELL_ROW_0_54
*656 TAP_TAPCELL_ROW_0_55
*657 TAP_TAPCELL_ROW_0_56
*658 TAP_TAPCELL_ROW_10_79
*659 TAP_TAPCELL_ROW_10_80
*660 TAP_TAPCELL_ROW_10_81
*661 TAP_TAPCELL_ROW_11_82
*662 TAP_TAPCELL_ROW_11_83
*663 TAP_TAPCELL_ROW_12_84
*664 TAP_TAPCELL_ROW_12_85
*665 TAP_TAPCELL_ROW_12_86
*666 TAP_TAPCELL_ROW_13_87
*667 TAP_TAPCELL_ROW_13_88
*668 TAP_TAPCELL_ROW_14_89
*669 TAP_TAPCELL_ROW_14_90
*670 TAP_TAPCELL_ROW_14_91
*671 TAP_TAPCELL_ROW_15_92
*672 TAP_TAPCELL_ROW_15_93
*673 TAP_TAPCELL_ROW_16_94
*674 TAP_TAPCELL_ROW_16_95
*675 TAP_TAPCELL_ROW_16_96
*676 TAP_TAPCELL_ROW_17_97
*677 TAP_TAPCELL_ROW_17_98
*678 TAP_TAPCELL_ROW_18_100
*679 TAP_TAPCELL_ROW_18_101
*680 TAP_TAPCELL_ROW_18_99
*681 TAP_TAPCELL_ROW_19_102
*682 TAP_TAPCELL_ROW_19_103
*683 TAP_TAPCELL_ROW_1_57
*684 TAP_TAPCELL_ROW_1_58
*685 TAP_TAPCELL_ROW_20_104
*686 TAP_TAPCELL_ROW_20_105
*687 TAP_TAPCELL_ROW_20_106
*688 TAP_TAPCELL_ROW_21_107
*689 TAP_TAPCELL_ROW_21_108
*690 TAP_TAPCELL_ROW_22_109
*691 TAP_TAPCELL_ROW_22_110
*692 TAP_TAPCELL_ROW_22_111
*693 TAP_TAPCELL_ROW_23_112
*694 TAP_TAPCELL_ROW_23_113
*695 TAP_TAPCELL_ROW_24_114
*696 TAP_TAPCELL_ROW_24_115
*697 TAP_TAPCELL_ROW_24_116
*698 TAP_TAPCELL_ROW_25_117
*699 TAP_TAPCELL_ROW_25_118
*700 TAP_TAPCELL_ROW_25_119
*701 TAP_TAPCELL_ROW_25_120
*702 TAP_TAPCELL_ROW_25_121
*703 TAP_TAPCELL_ROW_2_59
*704 TAP_TAPCELL_ROW_2_60
*705 TAP_TAPCELL_ROW_2_61
*706 TAP_TAPCELL_ROW_3_62
*707 TAP_TAPCELL_ROW_3_63
*708 TAP_TAPCELL_ROW_4_64
*709 TAP_TAPCELL_ROW_4_65
*710 TAP_TAPCELL_ROW_4_66
*711 TAP_TAPCELL_ROW_5_67
*712 TAP_TAPCELL_ROW_5_68
*713 TAP_TAPCELL_ROW_6_69
*714 TAP_TAPCELL_ROW_6_70
*715 TAP_TAPCELL_ROW_6_71
*716 TAP_TAPCELL_ROW_7_72
*717 TAP_TAPCELL_ROW_7_73
*718 TAP_TAPCELL_ROW_8_74
*719 TAP_TAPCELL_ROW_8_75
*720 TAP_TAPCELL_ROW_8_76
*721 TAP_TAPCELL_ROW_9_77
*722 TAP_TAPCELL_ROW_9_78
*723 _161_
*724 _162_
*725 _163_
*726 _164_
*727 _165_
*728 _166_
*729 _167_
*730 _168_
*731 _169_
*732 _170_
*733 _171_
*734 _172_
*735 _173_
*736 _174_
*737 _175_
*738 _176_
*739 _177_
*740 _178_
*741 _179_
*742 _180_
*743 _181_
*744 _182_
*745 _183_
*746 _184_
*747 _185_
*748 _186_
*749 _187_
*750 _188_
*751 _189_
*752 _190_
*753 _191_
*754 _192_
*755 _193_
*756 _194_
*757 _195_
*758 _196_
*759 _197_
*760 _198_
*761 _199_
*762 _200_
*763 _201_
*764 _202_
*765 _203_
*766 _204_
*767 _205_
*768 _206_
*769 _207_
*770 _208_
*771 _209_
*772 _210_
*773 _211_
*774 _212_
*775 _213_
*776 _214_
*777 _215_
*778 _216_
*779 _217_
*780 _218_
*781 _219_
*782 _220_
*783 _221_
*784 _222_
*785 _223_
*786 _224_
*787 _225_
*788 _226_
*789 _227_
*790 _228_
*791 _229_
*792 _230_
*793 _231_
*794 _232_
*795 _233_
*796 _234_
*797 _235_
*798 _236_
*799 _237_
*800 _238_
*801 _239_
*802 _240_
*803 _241_
*804 _242_
*805 _243_
*806 _244_
*807 _245_
*808 _246_
*809 _247_
*810 _248_
*811 _249_
*812 _250_
*813 _251_
*814 _252_
*815 _253_
*816 _254_
*817 _255_
*818 _256_
*819 _257_
*820 _258_
*821 _259_
*822 _260_
*823 _261_
*824 _262_
*825 _263_
*826 _264_
*827 _265_
*828 _266_
*829 _267_
*830 _268_
*831 _269_
*832 _270_
*833 _271_
*834 _272_
*835 _273_
*836 _274_
*837 _275_
*838 _276_
*839 _277_
*840 _278_
*841 _279_
*842 _280_
*843 _281_
*844 _282_
*845 _283_
*846 _284_
*847 _285_
*848 _286_
*849 _287_
*850 _288_
*851 _289_
*852 _290_
*853 _291_
*854 _292_
*855 _293_
*856 _294_
*857 _295_
*858 _296_
*859 _297_
*860 _298_
*861 _299_
*862 _300_
*863 _301_
*864 _302_
*865 _303_
*866 _304_
*867 _305_
*868 _306_
*869 _307_
*870 _308_
*871 _309_
*872 _310_
*873 _311_
*874 _312_
*875 _313_
*876 _314_
*877 _315_
*878 _316_
*879 _317_
*880 _318_
*881 _319_
*882 _320_
*883 _321_
*884 _322_
*885 _323_
*886 _324_
*887 _325_
*888 _326_
*889 _327_
*890 _328_
*891 _329_
*892 input1
*893 input10
*894 input11
*895 input12
*896 input13
*897 input14
*898 input15
*899 input16
*900 input17
*901 input18
*902 input19
*903 input2
*904 input3
*905 input4
*906 input5
*907 input6
*908 input7
*909 input8
*910 input9
*911 output20
*912 output21
*913 output22
*914 output23
*915 output24
*916 output25
*917 output26
*918 output27

*PORTS
A[0] I
A[1] I
A[2] I
A[3] I
A[4] I
A[5] I
A[6] I
A[7] I
B[0] I
B[1] I
B[2] I
B[3] I
B[4] I
B[5] I
B[6] I
B[7] I
opcode[0] I
opcode[1] I
opcode[2] I
out[0] O
out[1] O
out[2] O
out[3] O
out[4] O
out[5] O
out[6] O
out[7] O

*D_NET *1 0.000658157
*CONN
*P A[0] I
*I *892:A I *D sky130_fd_sc_hd__buf_1
*CAP
1 A[0] 0.0003045
2 *892:A 0
3 *1:17 0.0003045
4 *1:17 out[0] 2.12457e-05
5 *1:17 *894:A 2.79122e-05
*RES
1 A[0] *1:17 27.1584 
2 *1:17 *892:A 23 
*END

*D_NET *2 0.000654932
*CONN
*P A[1] I
*I *903:A I *D sky130_fd_sc_hd__buf_2
*CAP
1 A[1] 0.000327466
2 *903:A 0
3 *2:17 0.000327466
*RES
1 A[1] *2:17 27.1584 
2 *2:17 *903:A 23 
*END

*D_NET *3 0.000542207
*CONN
*P A[2] I
*I *904:A I *D sky130_fd_sc_hd__buf_1
*CAP
1 A[2] 0.000244857
2 *904:A 0.000244857
3 *904:A out[1] 1.5289e-05
4 *904:A *893:A 0
5 *904:A *894:A 0
6 *904:A *905:A 2.12457e-05
7 *904:A *23:14 1.59585e-05
*RES
1 A[2] *904:A 47.7832 
*END

*D_NET *4 0.000606357
*CONN
*P A[3] I
*I *905:A I *D sky130_fd_sc_hd__buf_1
*CAP
1 A[3] 0.000278599
2 *905:A 0.000278599
3 *905:A *893:A 2.79122e-05
4 *904:A *905:A 2.12457e-05
*RES
1 A[3] *905:A 49.8062 
*END

*D_NET *5 0.000901682
*CONN
*P A[4] I
*I *906:A I *D sky130_fd_sc_hd__dlymetal6s2s_1
*CAP
1 A[4] 0.000450841
2 *906:A 0.000450841
3 *906:A out[4] 0
*RES
1 A[4] *906:A 47.3214 
*END

*D_NET *6 0.000673425
*CONN
*P A[5] I
*I *907:A I *D sky130_fd_sc_hd__dlymetal6s2s_1
*CAP
1 A[5] 0.000336713
2 *907:A 0.000336713
3 *907:A out[5] 0
*RES
1 A[5] *907:A 49.1918 
*END

*D_NET *7 0.000618444
*CONN
*P A[6] I
*I *908:A I *D sky130_fd_sc_hd__clkbuf_2
*CAP
1 A[6] 0.000274581
2 *908:A 0.000274581
3 *908:A *15:11 6.92806e-05
*RES
1 A[6] *908:A 48.2212 
*END

*D_NET *8 0.000543151
*CONN
*P A[7] I
*I *909:A I *D sky130_fd_sc_hd__buf_1
*CAP
1 A[7] 0.000215781
2 *909:A 0.000215781
3 *909:A out[7] 6.29667e-05
4 *909:A *899:A 4.86219e-05
*RES
1 A[7] *909:A 47.7832 
*END

*D_NET *9 0.000878268
*CONN
*P B[0] I
*I *910:A I *D sky130_fd_sc_hd__clkbuf_2
*CAP
1 B[0] 0.000319849
2 *910:A 0.000319849
3 *910:A out[0] 0
4 *910:A out[2] 2.0307e-05
5 *910:A *12:17 2.12457e-05
6 *910:A *194:8 0.000197018
*RES
1 B[0] *910:A 49.6298 
*END

*D_NET *10 0.000733953
*CONN
*P B[1] I
*I *893:A I *D sky130_fd_sc_hd__buf_1
*CAP
1 B[1] 0.000353021
2 *893:A 0.000353021
3 *904:A *893:A 0
4 *905:A *893:A 2.79122e-05
*RES
1 B[1] *893:A 49.5439 
*END

*D_NET *11 0.000716202
*CONN
*P B[2] I
*I *894:A I *D sky130_fd_sc_hd__buf_1
*CAP
1 B[2] 0.000333522
2 *894:A 0.000333522
3 *894:A out[0] 0
4 *894:A out[1] 2.12457e-05
5 *894:A *23:14 0
6 *904:A *894:A 0
7 *1:17 *894:A 2.79122e-05
*RES
1 B[2] *894:A 49.1918 
*END

*D_NET *12 0.000672315
*CONN
*P B[3] I
*I *895:A I *D sky130_fd_sc_hd__buf_1
*CAP
1 B[3] 0.000311579
2 *895:A 0
3 *12:17 0.000311579
4 *12:17 out[0] 2.79122e-05
5 *910:A *12:17 2.12457e-05
*RES
1 B[3] *12:17 27.5105 
2 *12:17 *895:A 23 
*END

*D_NET *13 0.000941674
*CONN
*P B[4] I
*I *896:A I *D sky130_fd_sc_hd__clkbuf_2
*CAP
1 B[4] 0.000458023
2 *896:A 0.000458023
3 *896:A out[4] 0
4 *896:A *897:A 0
5 *896:A *195:10 2.56293e-05
*RES
1 B[4] *896:A 47.4457 
*END

*D_NET *14 0.0011668
*CONN
*P B[5] I
*I *897:A I *D sky130_fd_sc_hd__dlymetal6s2s_1
*CAP
1 B[5] 0.000583398
2 *897:A 0.000583398
3 *896:A *897:A 0
*RES
1 B[5] *897:A 49.7036 
*END

*D_NET *15 0.00153672
*CONN
*P B[6] I
*I *898:A I *D sky130_fd_sc_hd__dlymetal6s2s_1
*I *218:DIODE I *D sky130_fd_sc_hd__diode_2
*CAP
1 B[6] 0.000577671
2 *898:A 0
3 *218:DIODE 5.8069e-05
4 *15:11 0.00063574
5 *218:DIODE *197:16 0.000144494
6 *15:11 out[6] 5.14644e-05
7 *908:A *15:11 6.92806e-05
*RES
1 B[6] *15:11 25.556 
2 *15:11 *218:DIODE 24.5743 
3 *15:11 *898:A 23 
*END

*D_NET *16 0.000504823
*CONN
*P B[7] I
*I *899:A I *D sky130_fd_sc_hd__buf_1
*CAP
1 B[7] 0.000228101
2 *899:A 0.000228101
3 *909:A *899:A 4.86219e-05
*RES
1 B[7] *899:A 47.4311 
*END

*D_NET *19 0.00143606
*CONN
*P opcode[0] I
*I *900:A I *D sky130_fd_sc_hd__buf_1
*CAP
1 opcode[0] 0.000674379
2 *900:A 0
3 *19:11 0.000674379
4 *19:11 *901:A 5.50106e-05
5 *19:11 *902:A 0
6 *19:11 *200:10 3.22879e-05
*RES
1 opcode[0] *19:11 28.2779 
2 *19:11 *900:A 23 
*END

*D_NET *20 0.000965635
*CONN
*P opcode[1] I
*I *901:A I *D sky130_fd_sc_hd__dlymetal6s2s_1
*CAP
1 opcode[1] 0.000455312
2 *901:A 0.000455312
3 *19:11 *901:A 5.50106e-05
*RES
1 opcode[1] *901:A 47.3214 
*END

*D_NET *21 0.000910149
*CONN
*P opcode[2] I
*I *902:A I *D sky130_fd_sc_hd__buf_2
*CAP
1 opcode[2] 0.000455075
2 *902:A 0.000455075
3 *19:11 *902:A 0
*RES
1 opcode[2] *902:A 47.3214 
*END

*D_NET *22 0.00058337
*CONN
*P out[0] O
*I *911:X O *D sky130_fd_sc_hd__buf_2
*CAP
1 out[0] 0.000267106
2 *911:X 0.000267106
3 *894:A out[0] 0
4 *910:A out[0] 0
5 *1:17 out[0] 2.12457e-05
6 *12:17 out[0] 2.79122e-05
*RES
1 *911:X out[0] 47.5169 
*END

*D_NET *23 0.000746197
*CONN
*P out[1] O
*I *912:X O *D sky130_fd_sc_hd__buf_2
*CAP
1 out[1] 7.67726e-05
2 *912:X 0.000270079
3 *23:14 0.000346852
4 *894:A out[1] 2.12457e-05
5 *894:A *23:14 0
6 *904:A out[1] 1.5289e-05
7 *904:A *23:14 1.59585e-05
*RES
1 *912:X *23:14 49.9 
2 *23:14 out[1] 0.382667 
*END

*D_NET *24 0.00074457
*CONN
*P out[2] O
*I *913:X O *D sky130_fd_sc_hd__buf_2
*CAP
1 out[2] 0.000116859
2 *913:X 0.000245272
3 *24:10 0.000362131
4 *910:A out[2] 2.0307e-05
*RES
1 *913:X *24:10 42.1532 
2 *24:10 out[2] 8.4816 
*END

*D_NET *25 0.00149089
*CONN
*P out[3] O
*I *914:X O *D sky130_fd_sc_hd__clkbuf_4
*CAP
1 out[3] 0.00043927
2 *914:X 0.000306174
3 *25:8 0.000745444
*RES
1 *914:X *25:8 41.9564 
2 *25:8 out[3] 9.40429 
*END

*D_NET *26 0.00125961
*CONN
*P out[4] O
*I *915:X O *D sky130_fd_sc_hd__buf_2
*CAP
1 out[4] 0.000589012
2 *915:X 0.000589012
3 out[4] *207:14 8.15864e-05
4 *896:A out[4] 0
5 *906:A out[4] 0
*RES
1 *915:X out[4] 48.9993 
*END

*D_NET *27 0.00051864
*CONN
*P out[5] O
*I *916:X O *D sky130_fd_sc_hd__buf_2
*CAP
1 out[5] 0.000252949
2 *916:X 0.000252949
3 out[5] *208:16 1.27424e-05
4 *907:A out[5] 0
*RES
1 *916:X out[5] 47.1648 
*END

*D_NET *28 0.000557186
*CONN
*P out[6] O
*I *917:X O *D sky130_fd_sc_hd__buf_2
*CAP
1 out[6] 0.000252861
2 *917:X 0.000252861
3 out[6] out[7] 0
4 *15:11 out[6] 5.14644e-05
*RES
1 *917:X out[6] 47.5169 
*END

*D_NET *29 0.000606555
*CONN
*P out[7] O
*I *918:X O *D sky130_fd_sc_hd__buf_2
*CAP
1 out[7] 0.000271794
2 *918:X 0.000271794
3 out[6] out[7] 0
4 *909:A out[7] 6.29667e-05
*RES
1 *918:X out[7] 47.8691 
*END

*D_NET *30 0.00285834
*CONN
*I *884:A1 I *D sky130_fd_sc_hd__a31o_1
*I *810:A1 I *D sky130_fd_sc_hd__a311o_2
*I *875:A1 I *D sky130_fd_sc_hd__a21oi_1
*I *876:A1 I *D sky130_fd_sc_hd__a31o_1
*I *795:X O *D sky130_fd_sc_hd__or2b_1
*CAP
1 *884:A1 0
2 *810:A1 0
3 *875:A1 9.35022e-05
4 *876:A1 0
5 *795:X 0.000203344
6 *30:24 0.00029811
7 *30:18 0.000452096
8 *30:8 0.000450833
9 *875:A1 *876:A3 0.00015547
10 *875:A1 *41:10 9.80195e-05
11 *875:A1 *42:10 2.02872e-05
12 *30:8 *42:35 2.93747e-05
13 *30:8 *123:18 0.000247714
14 *30:18 *810:A2 4.34973e-05
15 *30:18 *810:B1 1.14154e-05
16 *30:18 *884:A2 0.000191157
17 *30:18 *38:23 2.64616e-05
18 *30:18 *41:18 9.84851e-05
19 *30:18 *45:10 4.05745e-05
20 *30:18 *120:48 0
21 *30:18 *181:14 0
22 *30:24 *810:A3 6.07611e-06
23 *30:24 *884:A2 7.75329e-06
24 *30:24 *38:40 0.000106399
25 *30:24 *38:50 1.0092e-05
26 *30:24 *41:10 2.17076e-05
27 *30:24 *41:18 4.41619e-05
28 *30:24 *48:53 0.000134776
29 *30:24 *120:48 6.70363e-05
*RES
1 *795:X *30:8 28.4064 
2 *30:8 *30:18 35.51 
3 *30:18 *30:24 35.4271 
4 *30:24 *876:A1 23 
5 *30:24 *875:A1 26.6871 
6 *30:18 *810:A1 23 
7 *30:8 *884:A1 23 
*END

*D_NET *31 0.00282113
*CONN
*I *800:B I *D sky130_fd_sc_hd__nor3_1
*I *798:A1 I *D sky130_fd_sc_hd__o21a_1
*I *796:X O *D sky130_fd_sc_hd__and3_1
*CAP
1 *800:B 0
2 *798:A1 0
3 *796:X 0
4 *31:29 0.00033997
5 *31:14 0.000275888
6 *31:4 0.000615859
7 *31:14 *796:B 0.000160978
8 *31:14 *35:33 0
9 *31:14 *144:59 4.77164e-06
10 *31:14 *180:134 9.4798e-06
11 *31:29 *796:B 9.92279e-05
12 *31:29 *800:C 0.000533795
13 *31:29 *862:B 0.000100477
14 *31:29 *863:C_N 0.000110258
15 *31:29 *33:10 3.52392e-05
16 *31:29 *34:12 9.99433e-06
17 *31:29 *93:8 0.000269589
18 *31:29 *141:12 0.000140939
19 *31:29 *141:115 4.21048e-05
20 *31:29 *180:134 6.88489e-05
21 *31:29 *217:127 3.7122e-06
*RES
1 *796:X *31:4 23 
2 *31:4 *31:14 34.205 
3 *31:14 *798:A1 23 
4 *31:4 *31:29 40.295 
5 *31:29 *800:B 23 
*END

*D_NET *32 0.00227021
*CONN
*I *800:C I *D sky130_fd_sc_hd__nor3_1
*I *798:A2 I *D sky130_fd_sc_hd__o21a_1
*I *797:Y O *D sky130_fd_sc_hd__a21oi_1
*CAP
1 *800:C 0.000346472
2 *798:A2 0
3 *797:Y 6.27877e-05
4 *32:6 0.00040926
5 *800:C *801:A1 9.79925e-05
6 *800:C *801:B1 1.21972e-05
7 *800:C *801:C1 2.221e-06
8 *800:C *33:10 0.00016796
9 *800:C *35:14 0.000219859
10 *800:C *36:8 1.39383e-05
11 *800:C *144:59 5.56279e-05
12 *800:C *180:109 5.47651e-05
13 *32:6 *33:10 0.000189848
14 *32:6 *180:109 0.000103484
15 *31:29 *800:C 0.000533795
*RES
1 *797:Y *32:6 25.5271 
2 *32:6 *798:A2 23 
3 *32:6 *800:C 33.3364 
*END

*D_NET *33 0.00406336
*CONN
*I *801:B1 I *D sky130_fd_sc_hd__a211oi_2
*I *803:A1 I *D sky130_fd_sc_hd__o21ai_2
*I *867:B I *D sky130_fd_sc_hd__or3_1
*I *861:A1 I *D sky130_fd_sc_hd__o211a_1
*I *798:X O *D sky130_fd_sc_hd__o21a_1
*CAP
1 *801:B1 0.000176736
2 *803:A1 1.27739e-05
3 *867:B 0.000152132
4 *861:A1 0
5 *798:X 0.000426442
6 *33:33 0.000572481
7 *33:14 0.000488473
8 *33:10 0.000684077
9 *801:B1 *801:A1 5.14826e-05
10 *801:B1 *35:14 1.06677e-05
11 *803:A1 *867:C 5.56356e-05
12 *803:A1 *97:10 2.46906e-05
13 *867:B *867:A 0.000111405
14 *867:B *867:C 1.88927e-05
15 *867:B *97:10 9.8203e-05
16 *33:10 *861:B1 2.4769e-05
17 *33:10 *34:12 7.45306e-06
18 *33:10 *35:33 8.69464e-05
19 *33:14 *861:B1 5.58562e-05
20 *33:14 *35:33 0.000135772
21 *33:33 *793:B1 1.12863e-05
22 *33:33 *861:B1 0.000110403
23 *33:33 *36:14 0
24 *33:33 *37:10 1.00084e-05
25 *33:33 *127:50 1.85903e-05
26 *33:33 *144:42 0.00014119
27 *33:33 *189:10 0.000149821
28 *33:33 *217:25 2.193e-05
29 *800:C *801:B1 1.21972e-05
30 *800:C *33:10 0.00016796
31 *31:29 *33:10 3.52392e-05
32 *32:6 *33:10 0.000189848
*RES
1 *798:X *33:10 44.815 
2 *33:10 *33:14 16.9057 
3 *33:14 *861:A1 23 
4 *33:14 *33:33 38.265 
5 *33:33 *867:B 26.5421 
6 *33:33 *803:A1 23.6214 
7 *33:10 *801:B1 40.4236 
*END

*D_NET *34 0.00368259
*CONN
*I *855:A1 I *D sky130_fd_sc_hd__a21o_1
*I *801:A1 I *D sky130_fd_sc_hd__a211oi_2
*I *861:B1 I *D sky130_fd_sc_hd__o211a_1
*I *799:Y O *D sky130_fd_sc_hd__inv_2
*CAP
1 *855:A1 9.82077e-05
2 *801:A1 3.44519e-05
3 *861:B1 0.000197336
4 *799:Y 0.000395175
5 *34:12 0.000487857
6 *34:6 0.000749453
7 *855:A1 *141:115 0.000132064
8 *861:B1 *793:B1 9.76337e-06
9 *861:B1 *861:C1 5.47983e-06
10 *861:B1 *144:42 4.93812e-05
11 *861:B1 *180:134 0.000152184
12 *861:B1 *217:25 0.00019167
13 *34:6 *796:C 1.95448e-05
14 *34:6 *141:115 2.09226e-05
15 *34:6 *203:12 0.000403185
16 *34:12 *863:C_N 0.000212121
17 *34:12 *180:134 0.000165847
18 *800:C *801:A1 9.79925e-05
19 *801:B1 *801:A1 5.14826e-05
20 *31:29 *34:12 9.99433e-06
21 *33:10 *861:B1 2.4769e-05
22 *33:10 *34:12 7.45306e-06
23 *33:14 *861:B1 5.58562e-05
24 *33:33 *861:B1 0.000110403
*RES
1 *799:Y *34:6 28.8621 
2 *34:6 *34:12 19.64 
3 *34:12 *861:B1 43.51 
4 *34:12 *801:A1 39.0979 
5 *34:6 *855:A1 24.5743 
*END

*D_NET *35 0.00241356
*CONN
*I *861:A2 I *D sky130_fd_sc_hd__o211a_1
*I *801:C1 I *D sky130_fd_sc_hd__a211oi_2
*I *800:Y O *D sky130_fd_sc_hd__nor3_1
*CAP
1 *861:A2 0
2 *801:C1 2.47634e-06
3 *800:Y 0.000197477
4 *35:33 0.000437849
5 *35:14 0.000637802
6 *801:C1 *36:8 8.46961e-06
7 *35:14 *36:8 0.000203834
8 *35:33 *144:59 8.30566e-06
9 *35:33 *180:109 0.000143918
10 *35:33 *180:134 4.51797e-05
11 *35:33 *202:66 0.000272783
12 *800:C *801:C1 2.221e-06
13 *800:C *35:14 0.000219859
14 *801:B1 *35:14 1.06677e-05
15 *31:14 *35:33 0
16 *33:10 *35:33 8.69464e-05
17 *33:14 *35:33 0.000135772
*RES
1 *800:Y *35:14 28.3443 
2 *35:14 *801:C1 23.1709 
3 *35:14 *35:33 35.3826 
4 *35:33 *861:A2 38 
*END

*D_NET *36 0.00309779
*CONN
*I *862:A I *D sky130_fd_sc_hd__or3_1
*I *867:C I *D sky130_fd_sc_hd__or3_1
*I *803:A2 I *D sky130_fd_sc_hd__o21ai_2
*I *801:Y O *D sky130_fd_sc_hd__a211oi_2
*CAP
1 *862:A 4.11253e-05
2 *867:C 0.000158195
3 *803:A2 0
4 *801:Y 0.000206392
5 *36:14 0.000656614
6 *36:8 0.000745937
7 *862:A *180:134 0
8 *862:A *217:38 5.78586e-05
9 *867:C *867:A 0.000139974
10 *867:C *97:10 2.69729e-05
11 *867:C *205:10 0.000430694
12 *36:14 *793:B1 0
13 *36:14 *96:12 0
14 *36:14 *97:10 8.16913e-05
15 *36:14 *121:64 4.08641e-05
16 *36:14 *131:87 1.01436e-05
17 *36:14 *180:134 0
18 *36:14 *205:10 7.12636e-05
19 *36:14 *217:38 0.000129293
20 *800:C *36:8 1.39383e-05
21 *801:C1 *36:8 8.46961e-06
22 *803:A1 *867:C 5.56356e-05
23 *867:B *867:C 1.88927e-05
24 *33:33 *36:14 0
25 *35:14 *36:8 0.000203834
*RES
1 *801:Y *36:8 41.0036 
2 *36:8 *36:14 24.1143 
3 *36:14 *803:A2 23 
4 *36:14 *867:C 28.4271 
5 *36:8 *862:A 38.8493 
*END

*D_NET *37 0.00082093
*CONN
*I *803:B1 I *D sky130_fd_sc_hd__o21ai_2
*I *867:A I *D sky130_fd_sc_hd__or3_1
*I *802:Y O *D sky130_fd_sc_hd__xnor2_1
*CAP
1 *803:B1 0
2 *867:A 4.20796e-05
3 *802:Y 0.000169967
4 *37:12 4.20796e-05
5 *37:10 0.000169967
6 *37:10 *795:A 5.73309e-05
7 *37:10 *189:10 7.81176e-05
8 *867:B *867:A 0.000111405
9 *867:C *867:A 0.000139974
10 *33:33 *37:10 1.00084e-05
*RES
1 *802:Y *37:10 40.8793 
2 *37:10 *37:12 15 
3 *37:12 *867:A 24.5743 
4 *37:12 *803:B1 23 
*END

*D_NET *38 0.00676314
*CONN
*I *810:A2 I *D sky130_fd_sc_hd__a311o_2
*I *876:A2 I *D sky130_fd_sc_hd__a31o_1
*I *875:A2 I *D sky130_fd_sc_hd__a21oi_1
*I *884:A2 I *D sky130_fd_sc_hd__a31o_1
*I *871:A1 I *D sky130_fd_sc_hd__a31o_1
*I *803:Y O *D sky130_fd_sc_hd__o21ai_2
*CAP
1 *810:A2 6.0543e-05
2 *876:A2 0
3 *875:A2 0
4 *884:A2 0.000103589
5 *871:A1 0
6 *803:Y 0.000450459
7 *38:50 0.000273187
8 *38:40 0.000564187
9 *38:25 0.000394589
10 *38:23 0.000842747
11 *38:14 0.00123266
12 *884:A2 *810:A3 5.24393e-05
13 *884:A2 *884:A3 0.000165593
14 *884:A2 *181:14 0
15 *38:14 *871:A2 3.22879e-05
16 *38:14 *871:A3 0.000179824
17 *38:14 *872:B2 2.4754e-05
18 *38:14 *96:12 0.00010018
19 *38:14 *97:10 0.000406356
20 *38:14 *131:77 0.000159652
21 *38:23 *871:A2 5.43443e-05
22 *38:23 *871:B1 7.88828e-05
23 *38:23 *131:71 0.000220302
24 *38:23 *131:77 0.000826698